/*--------------------------------*- C++ -*----------------------------------*\
| =========                 |                                                 |
| \\      /  F ield         | OpenFOAM: The Open Source CFD Toolbox           |
|  \\    /   O peration     | Version:  2.1.0                                 |
|   \\  /    A nd           | Web:      www.OpenFOAM.org                      |
|    \\/     M anipulation  |                                                 |
\*---------------------------------------------------------------------------*/
FoamFile
{
    version     2.0;
    format      ascii;
    class       dictionary;
    object      blockMeshDict;
}

// * * * * * * * * * * * * * * * * * * * * * * * * * * * * * * * * * * * * * //

convertToMeters 1;

vertices
(
    (-4.5 -0.04 -4.5) // 0
    (4.5  -0.04 -4.5) // 1
    (4.5  -0.04  4.5)  // 2
    (-4.5 -0.04  4.5) // 3
    (-4.5  -0.055 -4.5) // 4
    (4.5  -0.055 -4.5) // 5
    (4.5  -0.055  4.5) // 6
    (-4.5  -0.055 4.5) // 7
     
);

blocks
(
    hex (0 1 2 3 4 5 6 7) (60 60 1) simpleGrading (1 1 1) 
);

edges
(
);

boundary
(

    minX
    {
        type patch;
        faces
        (
            (0 4 7 3)
	    //(3 0 4 7)
        );
    }

    maxX
    {
        type patch;
        faces
        (
            (2 6 5 1)
	    //(1 2 5 6)
        );
    }

    minY
    {
        type patch;
        faces
        (
            (0 4 5 1)
	    //(0 1 5 4)
        );
    }

    maxY
    {
        type patch;
        faces
        (
            (2 6 7 3)
	    //(2 3 7 6)
        );
    }

    front
    {
        type symmetryPlane;
        faces
        (
            (0 1 2 3)
        );
    }
    back  
    {
        type symmetryPlane;
        faces
        (
            (4 5 6 7)

        );
    }
);

mergePatchPairs
(
);

// ************************************************************************* //
